<?xml version="1.0" encoding="UTF-8"?>

<!-- generated on 2026-02-07T00:43:25.710232+01:00 by Eclipse SUMO sumo 1.25.0
-->

<sumoConfiguration xmlns:xsi="http://www.w3.org/2001/XMLSchema-instance" xsi:noNamespaceSchemaLocation="http://sumo.dlr.de/xsd/sumoConfiguration.xsd">

    <input>
        <net-file value="Traci.net.xml"/>
        <route-files value="Traci.rou.xml"/>
    </input>

</sumoConfiguration>
